Version 4
SHEET 1 2744 680
WIRE 752 -320 704 -320
WIRE 848 -320 816 -320
WIRE 704 -224 704 -320
WIRE 736 -224 704 -224
WIRE 848 -224 848 -320
WIRE 848 -224 816 -224
WIRE 1216 -192 1216 -224
WIRE 768 -96 768 -112
WIRE 496 -80 480 -80
WIRE 592 -80 496 -80
WIRE 704 -80 704 -224
WIRE 704 -80 672 -80
WIRE 736 -80 704 -80
WIRE 1216 -80 1216 -112
WIRE 1216 -80 1152 -80
WIRE 848 -64 848 -224
WIRE 848 -64 800 -64
WIRE 976 -64 848 -64
WIRE 1008 -64 976 -64
WIRE 1152 -64 1152 -80
WIRE 736 -48 704 -48
WIRE 1216 -48 1216 -80
WIRE 704 -16 704 -48
WIRE 768 -16 768 -32
WIRE 1008 -16 1008 -64
WIRE 480 16 480 -80
WIRE 1216 64 1216 32
WIRE 480 160 480 96
WIRE 1008 160 1008 64
FLAG 1008 160 0
FLAG 480 160 0
FLAG 976 -64 Vout
FLAG 496 -80 Vin
FLAG 1152 -64 0
FLAG 1216 64 V-
FLAG 1216 -224 V+
FLAG 768 -112 V+
FLAG 768 -16 V-
FLAG 704 -16 0
SYMBOL res 1024 80 R180
WINDOW 0 36 76 Left 2
WINDOW 3 36 40 Left 2
SYMATTR InstName R4
SYMATTR Value 10MEG
SYMBOL voltage 480 0 R0
WINDOW 123 24 124 Left 2
WINDOW 39 0 0 Left 2
SYMATTR Value2 AC 1
SYMATTR InstName V1
SYMATTR Value SINE(0 50m 1k)
SYMBOL TL072\ National\\TL072 768 -128 R0
SYMATTR InstName U1
SYMBOL voltage 1216 -208 R0
WINDOW 123 0 0 Left 2
WINDOW 39 0 0 Left 2
SYMATTR InstName V3
SYMATTR Value 12
SYMBOL voltage 1216 -64 R0
WINDOW 123 0 0 Left 2
WINDOW 39 0 0 Left 2
SYMATTR InstName V4
SYMATTR Value 12
SYMBOL cap 816 -336 R90
WINDOW 0 0 32 VBottom 2
WINDOW 3 32 32 VTop 2
SYMATTR InstName C3
SYMATTR Value 2.2n
SYMBOL res 720 -208 R270
WINDOW 0 32 56 VTop 2
WINDOW 3 0 56 VBottom 2
SYMATTR InstName R1
SYMATTR Value 33k
SYMBOL res 576 -64 R270
WINDOW 0 32 56 VTop 2
WINDOW 3 0 56 VBottom 2
SYMATTR InstName R6
SYMATTR Value 3.3k
TEXT 1312 -184 Left 2 !;op
TEXT 1312 -48 Left 2 ;.step param amplitude 1 10 1
TEXT 1312 -152 Left 2 !;tran 10m
TEXT 1312 -72 Left 2 !.param amplitude=1
TEXT 1312 24 Left 2 ;.step param Vin 0 10 1
TEXT 1312 0 Left 2 ;.param Vin=1
TEXT 1312 -120 Left 2 !.ac oct 10 10 100k
